[rbmenu]
Консоль=/rd/1/shell
Диспетчер процессов=/rd/1/cpu
Управление темой=desktop
Настройка устройств=setup
menucolor=128,128,128
[KFM]
path=/SYS/FILE MANAGERS/KFM
param=
ico=5
x=0
y=0
[TINYPAD]
path=/SYS/TINYPAD
param=
ico=9
x=0
y=68
[EOLITE]
path=/SYS/FILE MANAGERS/EOLITE
param=
ico=2
x=68
y=0
[SHELL]
path=/SYS/SHELL
param=
ico=20
x=136
y=0
[KFAR]
path=/SYS/FILE MANAGERS/KFAR
param=
ico=16
x=68
y=68
[RDSAVE]
path=/SYS/RDSAVE
param=
ico=17
x=0
y=136
[CALC]
path=/SYS/CALC
param=
ico=4
x=68
y=136
[ANIMAGE]
path=/SYS/MEDIA/ANIMAGE
param=
ico=15
x=136
y=68
[KPACK]
path=/SYS/KPACK
param=
ico=10
x=-67
y=0
[SNAKE]
path=/SYS/GAMES/SNAKE
param=
ico=3
x=-135
y=-135
[MINE]
path=/SYS/GAMES/MINE
param=
ico=14
x=-67
y=-67
[LIFE2]
path=/SYS/DEMOS/LIFE2
param=
ico=13
x=-135
y=-67
[MBLOCKS]
path=/SYS/GAMES/MBLOCKS
param=
ico=11
x=-67
y=-135
[PONG]
path=/SYS/GAMES/PONG3
param=
ico=12
x=-203
y=-67
[15]
path=/SYS/GAMES/15
param=
ico=0
x=-271
y=-67
[DOCPACK]
path=/SYS/DOCPACK
param=
ico=8
x=-67
y=68
[BOARD]
path=/SYS/DEVELOP/BOARD
param=
ico=19
x=-135
y=0
[HEXEDIT]
path=/SYS/DEVELOP/HEED
param=
ico=22
x=-67
y=136
[MTDBG]
path=/SYS/DEVELOP/MTDBG
param=
ico=6
x=-203
y=0
[PIPES]
path=/SYS/GAMES/PIPES
param=
ico=26
x=0
y=-135
[SUDOKU]
path=/SYS/GAMES/SUDOKU
param=
ico=25
x=0
y=-67
[GOMOKU]
path=/SYS/GAMES/GOMOKU
param=
ico=24
x=68
y=-67
[XONIX]
path=/SYS/GAMES/XONIX
param=
ico=21
x=68
y=-135
[CHECKERS]
path=/SYS/GAMES/CHECKERS
param=
ico=1
x=-271
y=-135
[KOSILKA]
path=/SYS/GAMES/KOSILKA
param=
ico=23
x=136
y=-67
[FLOOD-IT]
path=/SYS/GAMES/FLOOD-IT
param=
ico=27
x=136
y=-135
[FASM]
path=/SYS/DEVELOP/FASM
param=
ico=10
x=-135
y=68
[CLICKS]
path=/SYS/GAMES/CLICKS
param=
ico=18
x=-203
y=-135
